/*--------------------------------*- C++ -*----------------------------------*\
| =========                 |                                                 |
| \\      /  F ield         | OpenFOAM: The Open Source CFD Toolbox           |
|  \\    /   O peration     | Version:  4.1                                   |
|   \\  /    A nd           | Web:      www.OpenFOAM.org                      |
|    \\/     M anipulation  |                                                 |
\*---------------------------------------------------------------------------*/
FoamFile
{
    version     2.0;
    format      ascii;
    class       featureEdgeMesh;
    location    "constant/triSurface";
    object      model.eMesh;
}
// * * * * * * * * * * * * * * * * * * * * * * * * * * * * * * * * * * * * * //


// points:

33
(
(0.00303272 0.000534751 0.0999526)
(0.00303272 -0.000534751 0.0999526)
(-0.000288507 -1.18083e-05 -0.0999996)
(0.00306779 -0.000268397 -0.0999526)
(0.00152676 -0.000201002 -0.0999881)
(0.00151654 0.000267407 0.0999881)
(0.00289379 0.00105325 0.0999526)
(0.00144707 0.000526689 0.0999881)
(0.00289379 -0.00105325 0.0999526)
(0.00144707 -0.000526689 0.0999881)
(0.00151654 -0.000267407 0.0999881)
(-0.000294663 -0.000711379 0.099997)
(-0.000883918 -0.00213397 0.0999733)
(-0.0028716 -0.000298651 -0.0999583)
(-0.000575564 -4.71935e-05 -0.0999983)
(-0.00307951 3.77131e-19 0.0999526)
(-0.00153994 1.88588e-19 0.0999881)
(-9.07436e-05 -0.000169769 0.0999998)
(-0.000833085 -0.0037578 0.0999259)
(-0.000398244 -0.00155387 0.0999871)
(-0.000288401 -1.41682e-05 0.0999996)
(0.00152676 0.000201002 -0.0999881)
(0.00306779 0.000268397 -0.0999526)
(0.000763403 0.000100504 0.099997)
(0.000751739 0.000166656 0.099997)
(0.000711379 0.000294663 0.099997)
(0.000711379 -0.000294663 0.099997)
(0.000751739 -0.000166656 0.099997)
(0.000763403 -0.000100504 0.099997)
(-3.35016e-05 -0.00025447 0.0999997)
(-0.00529501 0.000993326 -0.0998548)
(-0.000376759 7.92238e-05 -0.0999993)
(-0.00461395 -0.000201449 -0.0998933)
)


// edges:

25
(
(3 4)
(0 5)
(6 7)
(8 9)
(1 10)
(11 12)
(13 14)
(15 16)
(11 17)
(18 19)
(14 2)
(16 20)
(21 22)
(0 23)
(24 0)
(6 25)
(8 26)
(1 27)
(1 28)
(17 12)
(29 18)
(30 31)
(2 32)
(13 2)
(20 15)
)

// * * * * * * * * * * * * * * * * * * * * * * * * * * * * * * * * * * * * * //


// ************************************************************************* //
