/*--------------------------------*- C++ -*----------------------------------*\
| =========                 |                                                 |
| \\      /  F ield         | OpenFOAM: The Open Source CFD Toolbox           |
|  \\    /   O peration     | Version:  4.1                                   |
|   \\  /    A nd           | Web:      www.OpenFOAM.org                      |
|    \\/     M anipulation  |                                                 |
\*---------------------------------------------------------------------------*/
FoamFile
{
    version     2.0;
    format      ascii;
    class       extendedFeatureEdgeMesh;
    location    "constant/extendedFeatureEdgeMesh";
    object      Cuboid.extendedFeatureEdgeMesh;
}
// * * * * * * * * * * * * * * * * * * * * * * * * * * * * * * * * * * * * * //

// points
8((-0.3 0.3 0.3) (-0.3 0.3 -0.3) (-0.3 -0.3 0.3) (-0.3 -0.3 -0.3) (1 -0.3 0.3) (1 0.3 -0.3) (1 0.3 0.3) (1 -0.3 -0.3))
// edges

12
(
(0 1)
(2 0)
(3 2)
(1 3)
(5 6)
(6 4)
(4 7)
(7 5)
(3 7)
(4 2)
(5 1)
(0 6)
)

// concaveStart mixedStart nonFeatureStart
8 8 8
// internalStart flatStart openStart multipleStart
12 12 12 12
// normals

12
(
(-1 -0 -0)
(0 1 0)
(0 0 1)
(-1 0 0)
(0 -1 0)
(0 0 -1)
(1 -0 0)
(0 1 0)
(0 0 1)
(1 0 0)
(0 -1 0)
(0 0 -1)
)

// normal volume types

12
(
0
0
0
0
0
0
0
0
0
0
0
0
)

// normalDirections

12
(
2(1 -1)
2(1 -1)
2(1 -1)
2(1 -1)
2(1 -1)
2(1 -1)
2(1 -1)
2(1 -1)
2(1 -1)
2(1 -1)
2(1 -1)
2(1 -1)
)

// edgeNormals

12
(
2(0 1)
2(0 2)
2(3 4)
2(3 5)
2(6 7)
2(6 8)
2(9 10)
2(9 11)
2(10 11)
2(4 8)
2(7 5)
2(1 2)
)

// featurePointNormals

8
(
3(0 1 2)
3(0 1 5)
3(0 2 4)
3(3 4 5)
3(6 8 10)
3(6 7 11)
3(6 7 8)
3(9 10 11)
)

// featurePointEdges

8
(
3(0 11 1)
3(3 10 0)
3(2 9 1)
3(2 8 3)
3(6 9 5)
3(7 10 4)
3(4 11 5)
3(6 8 7)
)

// regionEdges

12
(
0
1
2
3
4
5
6
7
8
9
10
11
)



// ************************************************************************* //
