/*--------------------------------*- C++ -*----------------------------------*\
| =========                 |                                                 |
| \\      /  F ield         | OpenFOAM: The Open Source CFD Toolbox           |
|  \\    /   O peration     | Version:  4.1                                   |
|   \\  /    A nd           | Web:      www.OpenFOAM.org                      |
|    \\/     M anipulation  |                                                 |
\*---------------------------------------------------------------------------*/
FoamFile
{
    version     2.0;
    format      ascii;
    class       extendedFeatureEdgeMesh;
    location    "constant/extendedFeatureEdgeMesh";
    object      model.extendedFeatureEdgeMesh;
}
// * * * * * * * * * * * * * * * * * * * * * * * * * * * * * * * * * * * * * //

// points

33
(
(0.00303272 0.000534751 0.0999526)
(0.00303272 -0.000534751 0.0999526)
(-0.000288507 -1.18083e-05 -0.0999996)
(0.00306779 -0.000268397 -0.0999526)
(0.00152676 -0.000201002 -0.0999881)
(0.00151654 0.000267407 0.0999881)
(0.00289379 0.00105325 0.0999526)
(0.00144707 0.000526689 0.0999881)
(0.00289379 -0.00105325 0.0999526)
(0.00144707 -0.000526689 0.0999881)
(0.00151654 -0.000267407 0.0999881)
(-0.000294663 -0.000711379 0.099997)
(-0.000883918 -0.00213397 0.0999733)
(-0.0028716 -0.000298651 -0.0999583)
(-0.000575564 -4.71935e-05 -0.0999983)
(-0.00307951 3.77131e-19 0.0999526)
(-0.00153994 1.88588e-19 0.0999881)
(-9.07436e-05 -0.000169769 0.0999998)
(-0.000833085 -0.0037578 0.0999259)
(-0.000398244 -0.00155387 0.0999871)
(-0.000288401 -1.41682e-05 0.0999996)
(0.00152676 0.000201002 -0.0999881)
(0.00306779 0.000268397 -0.0999526)
(0.000763403 0.000100504 0.099997)
(0.000751739 0.000166656 0.099997)
(0.000711379 0.000294663 0.099997)
(0.000711379 -0.000294663 0.099997)
(0.000751739 -0.000166656 0.099997)
(0.000763403 -0.000100504 0.099997)
(-3.35016e-05 -0.00025447 0.0999997)
(-0.00529501 0.000993326 -0.0998548)
(-0.000376759 7.92238e-05 -0.0999993)
(-0.00461395 -0.000201449 -0.0998933)
)

// edges

25
(
(3 4)
(0 5)
(6 7)
(8 9)
(1 10)
(11 12)
(13 14)
(15 16)
(11 17)
(18 19)
(14 2)
(16 20)
(21 22)
(0 23)
(24 0)
(6 25)
(8 26)
(1 27)
(1 28)
(17 12)
(29 18)
(30 31)
(2 32)
(13 2)
(20 15)
)

// concaveStart mixedStart nonFeatureStart
0 0 3
// internalStart flatStart openStart multipleStart
13 25 25 25
// normals

36
(
(0.0302313 0.171558 -0.98471)
(0.0181945 -0.108536 -0.993926)
(0.0665644 -0.248953 0.966225)
(-0.0225969 0.256706 0.966225)
(0.108784 -0.233612 0.966225)
(-0.06683 0.248882 0.966225)
(-0.06683 -0.248882 0.966225)
(0.108784 0.233612 0.966225)
(-0.0225969 -0.256706 0.966225)
(0.0665644 0.248953 0.966225)
(-0.00527037 -0.0144802 0.999881)
(-0.290585 0.104513 0.951124)
(-0.0240578 0.0608712 -0.997856)
(-0.0878042 0.68693 -0.7214)
(-0.0230971 0.00100843 0.999733)
(-0.0145433 -0.77687 0.629493)
(-0.00330082 -0.00390204 0.999987)
(-0.0583551 -0.0162204 0.998164)
(0.211981 -0.0689104 0.974841)
(-0.00393881 -0.00320957 -0.999987)
(-0.00919499 -0.00559862 0.999942)
(0.0302313 -0.171558 -0.98471)
(0.0181945 0.108536 -0.993926)
(0.00912041 0.0545428 0.99847)
(0.0272251 -0.0481341 0.99847)
(0.0351699 -0.0426753 0.99847)
(0.0351699 0.0426753 0.99847)
(0.0272251 0.0481341 0.99847)
(0.00912041 -0.0545428 0.99847)
(-0.0204739 -0.00521791 0.999777)
(-0.0617436 -0.00692597 0.998068)
(-0.0099728 0.103543 -0.994575)
(-0.0671859 -0.207226 -0.975983)
(-0.018062 -0.142649 -0.989608)
(-0.0299233 0.126848 -0.991471)
(-0.0163684 0.0812168 0.996562)
)

// normal volume types

36
(
0
0
0
0
0
0
0
0
0
0
0
0
0
0
0
0
0
0
0
0
0
0
0
0
0
0
0
0
0
0
0
0
0
0
0
0
)

// normalDirections

25
(
2(1 -1)
2(1 -1)
2(1 -1)
2(1 -1)
2(1 -1)
2(1 -1)
2(1 -1)
2(1 -1)
2(1 -1)
2(1 -1)
2(1 -1)
2(1 -1)
2(1 -1)
2(1 -1)
2(1 -1)
2(1 -1)
2(1 -1)
2(1 -1)
2(1 -1)
2(1 -1)
2(1 -1)
2(1 -1)
2(1 -1)
2(1 -1)
2(1 -1)
)

// edgeNormals

25
(
2(0 1)
2(2 3)
2(4 5)
2(6 7)
2(8 9)
2(10 11)
2(12 13)
2(14 15)
2(11 16)
2(17 18)
2(19 13)
2(20 15)
2(21 22)
2(23 2)
2(24 3)
2(5 25)
2(26 6)
2(27 8)
2(9 28)
2(11 29)
2(30 18)
2(31 32)
2(33 34)
2(13 34)
2(35 15)
)

// featurePointNormals

3
(
4(2 3 23 24)
4(8 9 27 28)
4(19 13 33 34)
)

// featurePointEdges

3
(
3(13 1 14)
3(18 4 17)
3(10 23 22)
)

// regionEdges
0()


// ************************************************************************* //
